* NGSPICE file created from bfloat16_spi_top.ext - technology: ihp-sg13g2

* Black-box entry subcircuit for sg13g2_fill_2 abstract view
.subckt sg13g2_fill_2 VDD VSS
.ends

* Black-box entry subcircuit for sg13g2_fill_1 abstract view
.subckt sg13g2_fill_1 VDD VSS
.ends

* Black-box entry subcircuit for sg13g2_o21ai_1 abstract view
.subckt sg13g2_o21ai_1 B1 VDD Y VSS A1 A2
.ends

* Black-box entry subcircuit for sg13g2_decap_8 abstract view
.subckt sg13g2_decap_8 VDD VSS
.ends

* Black-box entry subcircuit for sg13g2_and4_1 abstract view
.subckt sg13g2_and4_1 A B C D X VDD VSS
.ends

* Black-box entry subcircuit for sg13g2_nor2_1 abstract view
.subckt sg13g2_nor2_1 A B Y VDD VSS
.ends

* Black-box entry subcircuit for sg13g2_nand2_1 abstract view
.subckt sg13g2_nand2_1 Y A B VDD VSS
.ends

* Black-box entry subcircuit for sg13g2_decap_4 abstract view
.subckt sg13g2_decap_4 VDD VSS
.ends

* Black-box entry subcircuit for sg13g2_a21o_1 abstract view
.subckt sg13g2_a21o_1 A2 A1 B1 X VDD VSS
.ends

* Black-box entry subcircuit for sg13g2_inv_1 abstract view
.subckt sg13g2_inv_1 VDD Y A VSS
.ends

* Black-box entry subcircuit for sg13g2_dfrbpq_2 abstract view
.subckt sg13g2_dfrbpq_2 RESET_B VSS VDD D Q CLK
.ends

* Black-box entry subcircuit for sg13g2_nand3_1 abstract view
.subckt sg13g2_nand3_1 B C A Y VDD VSS
.ends

* Black-box entry subcircuit for sg13g2_dfrbpq_1 abstract view
.subckt sg13g2_dfrbpq_1 RESET_B VSS VDD D Q CLK
.ends

* Black-box entry subcircuit for sg13g2_nand2_2 abstract view
.subckt sg13g2_nand2_2 Y A B VDD VSS
.ends

* Black-box entry subcircuit for sg13g2_a221oi_1 abstract view
.subckt sg13g2_a221oi_1 VDD VSS B2 C1 B1 A1 Y A2
.ends

* Black-box entry subcircuit for sg13g2_a21oi_1 abstract view
.subckt sg13g2_a21oi_1 VSS VDD A1 A2 Y B1
.ends

* Black-box entry subcircuit for sg13g2_buf_2 abstract view
.subckt sg13g2_buf_2 A X VDD VSS
.ends

* Black-box entry subcircuit for sg13g2_a22oi_1 abstract view
.subckt sg13g2_a22oi_1 Y B1 B2 A2 A1 VDD VSS
.ends

* Black-box entry subcircuit for sg13g2_nand2b_2 abstract view
.subckt sg13g2_nand2b_2 Y B VDD VSS A_N
.ends

* Black-box entry subcircuit for sg13g2_buf_1 abstract view
.subckt sg13g2_buf_1 A X VDD VSS
.ends

* Black-box entry subcircuit for sg13g2_xnor2_1 abstract view
.subckt sg13g2_xnor2_1 Y A B VDD VSS
.ends

* Black-box entry subcircuit for sg13g2_inv_2 abstract view
.subckt sg13g2_inv_2 Y A VDD VSS
.ends

* Black-box entry subcircuit for sg13g2_buf_8 abstract view
.subckt sg13g2_buf_8 A X VDD VSS
.ends

* Black-box entry subcircuit for sg13g2_nor2b_1 abstract view
.subckt sg13g2_nor2b_1 A B_N Y VDD VSS
.ends

* Black-box entry subcircuit for sg13g2_nand4_1 abstract view
.subckt sg13g2_nand4_1 B C A Y VDD VSS D
.ends

* Black-box entry subcircuit for sg13g2_nand3b_1 abstract view
.subckt sg13g2_nand3b_1 B C Y VDD VSS A_N
.ends

* Black-box entry subcircuit for sg13g2_nor3_1 abstract view
.subckt sg13g2_nor3_1 A B C Y VDD VSS
.ends

* Black-box entry subcircuit for sg13g2_nor4_1 abstract view
.subckt sg13g2_nor4_1 A B C D Y VDD VSS
.ends

* Black-box entry subcircuit for sg13g2_inv_4 abstract view
.subckt sg13g2_inv_4 A Y VDD VSS
.ends

* Black-box entry subcircuit for sg13g2_mux2_1 abstract view
.subckt sg13g2_mux2_1 A0 A1 S X VDD VSS
.ends

* Black-box entry subcircuit for sg13g2_nand2b_1 abstract view
.subckt sg13g2_nand2b_1 Y B A_N VDD VSS
.ends

* Black-box entry subcircuit for sg13g2_nor2_2 abstract view
.subckt sg13g2_nor2_2 A B Y VDD VSS
.ends

* Black-box entry subcircuit for sg13g2_nor2b_2 abstract view
.subckt sg13g2_nor2b_2 A B_N Y VDD VSS
.ends

* Black-box entry subcircuit for sg13g2_xor2_1 abstract view
.subckt sg13g2_xor2_1 B A X VDD VSS
.ends

* Black-box entry subcircuit for sg13g2_and3_1 abstract view
.subckt sg13g2_and3_1 X A B C VDD VSS
.ends

* Black-box entry subcircuit for sg13g2_a21oi_2 abstract view
.subckt sg13g2_a21oi_2 VSS VDD B1 Y A2 A1
.ends

* Black-box entry subcircuit for sg13g2_nor4_2 abstract view
.subckt sg13g2_nor4_2 A B C Y VSS VDD D
.ends

* Black-box entry subcircuit for sg13g2_a21o_2 abstract view
.subckt sg13g2_a21o_2 A2 A1 B1 X VDD VSS
.ends

* Black-box entry subcircuit for sg13g2_and2_1 abstract view
.subckt sg13g2_and2_1 A B X VDD VSS
.ends

* Black-box entry subcircuit for sg13g2_nor3_2 abstract view
.subckt sg13g2_nor3_2 A B C Y VDD VSS
.ends

* Black-box entry subcircuit for sg13g2_and3_2 abstract view
.subckt sg13g2_and3_2 X A B C VDD VSS
.ends

* Black-box entry subcircuit for sg13g2_inv_8 abstract view
.subckt sg13g2_inv_8 Y A VDD VSS
.ends

* Black-box entry subcircuit for sg13g2_or2_1 abstract view
.subckt sg13g2_or2_1 VSS VDD X B A
.ends

* Black-box entry subcircuit for sg13g2_or3_1 abstract view
.subckt sg13g2_or3_1 A B C X VDD VSS
.ends

.subckt bfloat16_spi_top VGND VPWR clk miso mosi rst ss
XFILLER_79_380 VPWR VGND sg13g2_fill_2
XFILLER_95_873 VPWR VGND sg13g2_fill_1
X_09671_ _03787_ VPWR _01240_ VGND _02729_ _03785_ sg13g2_o21ai_1
XFILLER_55_726 VPWR VGND sg13g2_fill_1
XFILLER_55_704 VPWR VGND sg13g2_decap_8
XFILLER_54_203 VPWR VGND sg13g2_decap_8
XFILLER_94_383 VPWR VGND sg13g2_fill_1
X_08622_ _02792_ _02759_ _02782_ _02745_ _02844_ VPWR VGND sg13g2_and4_1
X_08553_ acc_sum.op_sign_logic0.mantisa_b\[5\] _02776_ _02777_ VPWR VGND sg13g2_nor2_1
XFILLER_82_578 VPWR VGND sg13g2_fill_1
XFILLER_82_556 VPWR VGND sg13g2_decap_8
XFILLER_54_269 VPWR VGND sg13g2_fill_1
XFILLER_36_962 VPWR VGND sg13g2_decap_8
X_07504_ _01826_ _01825_ acc_sub.exp_mant_logic0.a\[8\] VPWR VGND sg13g2_nand2_1
X_08484_ _02712_ VPWR _02713_ VGND fpdiv.divider0.remainder_reg\[6\] _02692_ sg13g2_o21ai_1
XFILLER_70_729 VPWR VGND sg13g2_decap_8
XFILLER_35_483 VPWR VGND sg13g2_decap_8
XFILLER_23_601 VPWR VGND sg13g2_decap_8
X_07435_ fpdiv.divider0.divisor_reg\[8\] net1750 _01767_ VPWR VGND sg13g2_nor2_1
XFILLER_35_1009 VPWR VGND sg13g2_decap_4
XFILLER_23_634 VPWR VGND sg13g2_fill_2
XFILLER_51_976 VPWR VGND sg13g2_fill_2
XFILLER_22_155 VPWR VGND sg13g2_fill_2
X_07366_ _01720_ net1799 acc_sub.seg_reg0.q\[24\] VPWR VGND sg13g2_nand2_1
XFILLER_10_328 VPWR VGND sg13g2_fill_2
X_07297_ _01663_ VPWR _01483_ VGND _01656_ _01661_ sg13g2_o21ai_1
X_09105_ _03100_ VPWR _03287_ VGND _03194_ _03286_ sg13g2_o21ai_1
XFILLER_108_216 VPWR VGND sg13g2_fill_1
X_09036_ net1790 _03170_ _03221_ _03222_ VPWR VGND sg13g2_a21o_1
XFILLER_116_271 VPWR VGND sg13g2_decap_8
XFILLER_105_923 VPWR VGND sg13g2_decap_8
XFILLER_89_100 VPWR VGND sg13g2_fill_2
XFILLER_7_7 VPWR VGND sg13g2_decap_8
XFILLER_120_904 VPWR VGND sg13g2_decap_8
XFILLER_117_77 VPWR VGND sg13g2_decap_8
XFILLER_77_26 VPWR VGND sg13g2_decap_8
XFILLER_2_549 VPWR VGND sg13g2_fill_2
XFILLER_89_166 VPWR VGND sg13g2_decap_4
XFILLER_77_317 VPWR VGND sg13g2_decap_8
X_09938_ VPWR _04034_ fp16_res_pipe.exp_mant_logic0.b\[8\] VGND sg13g2_inv_1
X_09869_ _03975_ _03687_ _03655_ VPWR VGND sg13g2_nand2_1
XFILLER_19_929 VPWR VGND sg13g2_decap_8
X_12880_ _06658_ _06657_ net1732 VPWR VGND sg13g2_nand2_1
X_11900_ _05780_ VPWR _01004_ VGND net1877 _05779_ sg13g2_o21ai_1
XFILLER_46_748 VPWR VGND sg13g2_fill_2
XFILLER_45_225 VPWR VGND sg13g2_decap_8
X_11831_ _01023_ _05729_ _05730_ VPWR VGND sg13g2_nand2_1
XFILLER_45_258 VPWR VGND sg13g2_decap_8
X_14550_ _00351_ VGND VPWR _01086_ acc_sum.op_sign_logic0.mantisa_a\[2\] clknet_leaf_29_clk
+ sg13g2_dfrbpq_2
XFILLER_54_792 VPWR VGND sg13g2_fill_1
XFILLER_26_63 VPWR VGND sg13g2_decap_8
XFILLER_27_995 VPWR VGND sg13g2_decap_8
X_13501_ VPWR _00052_ net84 VGND sg13g2_inv_1
XFILLER_13_111 VPWR VGND sg13g2_decap_8
X_11762_ fp16_sum_pipe.add_renorm0.exp\[1\] _05665_ _05536_ _05666_ VPWR VGND sg13g2_nand3_1
X_14481_ _00282_ VGND VPWR _01019_ add_result\[6\] clknet_leaf_100_clk sg13g2_dfrbpq_1
XFILLER_13_155 VPWR VGND sg13g2_decap_8
X_10713_ VPWR _04726_ _04724_ VGND sg13g2_inv_1
X_13432_ _07095_ net1720 instr\[1\] VPWR VGND sg13g2_nand2_1
XFILLER_9_126 VPWR VGND sg13g2_decap_8
X_10644_ _04657_ _04650_ _04656_ VPWR VGND sg13g2_nand2_1
XFILLER_42_84 VPWR VGND sg13g2_decap_8
X_10575_ _04600_ VPWR _01149_ VGND net1926 _02197_ sg13g2_o21ai_1
XFILLER_6_800 VPWR VGND sg13g2_fill_1
X_12314_ _06160_ net1857 net1867 VPWR VGND sg13g2_nand2_2
XFILLER_10_884 VPWR VGND sg13g2_decap_8
XFILLER_127_569 VPWR VGND sg13g2_decap_8
X_13294_ VPWR VGND acc_sub.y\[4\] _07007_ net1711 net1728 _07008_ acc_sum.y\[4\] sg13g2_a221oi_1
X_12245_ _06072_ _06074_ _06091_ VPWR VGND sg13g2_nor2_1
XFILLER_6_899 VPWR VGND sg13g2_decap_8
XFILLER_123_764 VPWR VGND sg13g2_decap_8
XFILLER_96_604 VPWR VGND sg13g2_decap_8
X_12176_ VPWR _06022_ _06005_ VGND sg13g2_inv_1
XFILLER_122_252 VPWR VGND sg13g2_decap_8
XFILLER_111_915 VPWR VGND sg13g2_decap_8
XFILLER_110_403 VPWR VGND sg13g2_decap_8
XFILLER_69_829 VPWR VGND sg13g2_decap_8
X_11127_ VGND VPWR _05046_ _05082_ _05097_ _05096_ sg13g2_a21oi_1
XFILLER_3_56 VPWR VGND sg13g2_decap_8
XFILLER_95_147 VPWR VGND sg13g2_decap_8
XFILLER_77_862 VPWR VGND sg13g2_fill_1
X_11058_ _04998_ _05010_ _05036_ VPWR VGND sg13g2_nor2_1
X_10009_ _04097_ _04096_ _03993_ VPWR VGND sg13g2_nand2_1
X_14817_ _00618_ VGND VPWR _01341_ acc_sum.add_renorm0.mantisa\[6\] clknet_leaf_35_clk
+ sg13g2_dfrbpq_2
XFILLER_36_247 VPWR VGND sg13g2_decap_8
XFILLER_18_962 VPWR VGND sg13g2_decap_8
XFILLER_91_375 VPWR VGND sg13g2_decap_4
XFILLER_51_217 VPWR VGND sg13g2_fill_1
XFILLER_33_932 VPWR VGND sg13g2_decap_8
XFILLER_17_472 VPWR VGND sg13g2_decap_8
X_14748_ _00549_ VGND VPWR _01276_ fp16_res_pipe.add_renorm0.mantisa\[11\] clknet_leaf_137_clk
+ sg13g2_dfrbpq_2
XFILLER_32_420 VPWR VGND sg13g2_decap_8
XFILLER_20_615 VPWR VGND sg13g2_fill_1
X_14679_ _00480_ VGND VPWR _01207_ fp16_res_pipe.op_sign_logic0.mantisa_a\[5\] clknet_leaf_144_clk
+ sg13g2_dfrbpq_2
XFILLER_20_637 VPWR VGND sg13g2_decap_4
XFILLER_121_1012 VPWR VGND sg13g2_fill_2
XFILLER_121_1001 VPWR VGND sg13g2_decap_8
X_07151_ VPWR _01523_ acc_sub.op_sign_logic0.mantisa_a\[6\] VGND sg13g2_inv_1
XFILLER_118_558 VPWR VGND sg13g2_fill_1
XFILLER_66_0 VPWR VGND sg13g2_decap_8
XFILLER_118_569 VPWR VGND sg13g2_decap_8
XFILLER_106_709 VPWR VGND sg13g2_fill_2
XFILLER_105_208 VPWR VGND sg13g2_fill_1
XFILLER_114_797 VPWR VGND sg13g2_decap_8
Xfanout105 net106 net105 VPWR VGND sg13g2_buf_2
XFILLER_113_274 VPWR VGND sg13g2_fill_2
XFILLER_102_937 VPWR VGND sg13g2_decap_8
XFILLER_99_497 VPWR VGND sg13g2_fill_2
Xfanout138 net139 net138 VPWR VGND sg13g2_buf_2
Xfanout116 net119 net116 VPWR VGND sg13g2_buf_2
Xfanout127 net128 net127 VPWR VGND sg13g2_buf_2
XFILLER_59_328 VPWR VGND sg13g2_fill_2
XFILLER_101_447 VPWR VGND sg13g2_decap_8
XFILLER_87_659 VPWR VGND sg13g2_decap_8
X_07984_ _02255_ fp16_sum_pipe.exp_mant_logic0.a\[10\] _02250_ fp16_sum_pipe.seg_reg0.q\[25\]
+ net1775 VPWR VGND sg13g2_a22oi_1
X_09723_ _03839_ _03828_ acc_sum.add_renorm0.exp\[0\] VPWR VGND sg13g2_nand2_1
XFILLER_103_13 VPWR VGND sg13g2_fill_1
X_09654_ _03771_ _03728_ _03726_ VPWR VGND sg13g2_nand2_1
XFILLER_95_692 VPWR VGND sg13g2_fill_2
XFILLER_83_832 VPWR VGND sg13g2_fill_1
XFILLER_28_726 VPWR VGND sg13g2_decap_4
XFILLER_103_57 VPWR VGND sg13g2_fill_2
XFILLER_103_46 VPWR VGND sg13g2_decap_8
XFILLER_94_191 VPWR VGND sg13g2_decap_8
X_08605_ _02827_ VPWR _02828_ VGND _02774_ _02826_ sg13g2_o21ai_1
XFILLER_83_876 VPWR VGND sg13g2_fill_1
XFILLER_82_353 VPWR VGND sg13g2_decap_8
XFILLER_43_718 VPWR VGND sg13g2_decap_8
XFILLER_103_79 VPWR VGND sg13g2_fill_2
X_09585_ _03702_ _02806_ _03673_ VPWR VGND sg13g2_nand2_1
XFILLER_27_269 VPWR VGND sg13g2_decap_8
X_08536_ _02760_ acc_sum.op_sign_logic0.mantisa_a\[1\] VPWR VGND acc_sum.op_sign_logic0.mantisa_b\[1\]
+ sg13g2_nand2b_2
XFILLER_36_792 VPWR VGND sg13g2_fill_2
XFILLER_24_932 VPWR VGND sg13g2_decap_8
X_08467_ _02699_ net1647 _02698_ VPWR VGND sg13g2_nand2_1
XFILLER_51_784 VPWR VGND sg13g2_decap_8
XFILLER_23_464 VPWR VGND sg13g2_fill_1
X_07418_ _01754_ net1890 acc\[0\] VPWR VGND sg13g2_nand2_1
X_08398_ VGND VPWR _02592_ _02629_ _02635_ _02634_ sg13g2_a21oi_1
X_07349_ _01708_ VPWR _01476_ VGND acc_sub.reg2en.q\[0\] _01707_ sg13g2_o21ai_1
XFILLER_7_619 VPWR VGND sg13g2_decap_8
XFILLER_12_21 VPWR VGND sg13g2_decap_8
X_10360_ _04403_ _04409_ _04410_ VPWR VGND sg13g2_nor2_1
X_09019_ VGND VPWR _03202_ _03173_ _03205_ _03204_ sg13g2_a21oi_1
XFILLER_105_720 VPWR VGND sg13g2_decap_8
XFILLER_88_36 VPWR VGND sg13g2_decap_8
XFILLER_88_25 VPWR VGND sg13g2_fill_2
XFILLER_3_847 VPWR VGND sg13g2_decap_8
XFILLER_2_302 VPWR VGND sg13g2_fill_2
X_10291_ _01192_ _04358_ _04359_ VPWR VGND sg13g2_nand2_1
XFILLER_12_98 VPWR VGND sg13g2_decap_8
XFILLER_105_742 VPWR VGND sg13g2_fill_2
XFILLER_105_731 VPWR VGND sg13g2_decap_8
X_12030_ VPWR _05877_ fpmul.seg_reg0.q\[16\] VGND sg13g2_inv_1
XFILLER_2_346 VPWR VGND sg13g2_decap_8
XFILLER_104_263 VPWR VGND sg13g2_decap_8
XFILLER_104_241 VPWR VGND sg13g2_decap_8
XFILLER_78_659 VPWR VGND sg13g2_decap_4
XFILLER_77_114 VPWR VGND sg13g2_fill_2
XFILLER_120_778 VPWR VGND sg13g2_decap_8
XFILLER_77_169 VPWR VGND sg13g2_decap_8
XFILLER_59_884 VPWR VGND sg13g2_decap_8
XFILLER_59_851 VPWR VGND sg13g2_fill_2
X_13981_ VPWR _00532_ net12 VGND sg13g2_inv_1
XFILLER_100_480 VPWR VGND sg13g2_decap_8
XFILLER_92_128 VPWR VGND sg13g2_fill_2
X_12932_ VGND VPWR net1936 add_result\[3\] _06705_ net1950 sg13g2_a21oi_1
XFILLER_18_214 VPWR VGND sg13g2_fill_1
XFILLER_100_491 VPWR VGND sg13g2_fill_1
XFILLER_85_191 VPWR VGND sg13g2_decap_8
XFILLER_73_342 VPWR VGND sg13g2_fill_2
XFILLER_37_84 VPWR VGND sg13g2_decap_8
XFILLER_74_898 VPWR VGND sg13g2_fill_1
XFILLER_74_887 VPWR VGND sg13g2_decap_8
X_12863_ _06642_ _06641_ VPWR VGND _06640_ sg13g2_nand2b_2
X_14602_ _00403_ VGND VPWR _01134_ fp16_res_pipe.y\[13\] clknet_leaf_129_clk sg13g2_dfrbpq_2
XFILLER_15_910 VPWR VGND sg13g2_decap_8
X_11814_ net1837 _05714_ _05709_ _05715_ VPWR VGND sg13g2_nand3_1
XFILLER_14_420 VPWR VGND sg13g2_decap_8
XFILLER_18_1004 VPWR VGND sg13g2_decap_8
X_14533_ _00334_ VGND VPWR _01069_ fpdiv.div_out\[8\] clknet_leaf_76_clk sg13g2_dfrbpq_2
X_11745_ _05647_ _05648_ _05646_ _05649_ VPWR VGND sg13g2_nand3_1
XFILLER_15_987 VPWR VGND sg13g2_decap_8
XFILLER_30_913 VPWR VGND sg13g2_decap_8
XFILLER_105_1007 VPWR VGND sg13g2_decap_8
X_14464_ _00265_ VGND VPWR _01003_ fpmul.seg_reg0.q\[49\] clknet_leaf_93_clk sg13g2_dfrbpq_1
X_13415_ _07086_ VPWR _00796_ VGND _07040_ net1722 sg13g2_o21ai_1
X_11676_ _05580_ _05579_ fp16_sum_pipe.add_renorm0.exp\[6\] VPWR VGND sg13g2_nand2_1
XFILLER_127_322 VPWR VGND sg13g2_decap_8
X_14395_ _00196_ VGND VPWR _00934_ div_result\[8\] clknet_leaf_87_clk sg13g2_dfrbpq_1
X_10627_ VGND VPWR _03565_ _03572_ _04640_ _04633_ sg13g2_a21oi_1
Xplace1808 acc_sum.exp_mant_logic0.a\[6\] net1808 VPWR VGND sg13g2_buf_2
X_13346_ _07047_ _07027_ fp16_res_pipe.x2\[7\] VPWR VGND sg13g2_nand2_1
XFILLER_5_140 VPWR VGND sg13g2_decap_8
X_10558_ _04590_ VPWR _01156_ VGND net1845 _04589_ sg13g2_o21ai_1
XFILLER_127_399 VPWR VGND sg13g2_decap_8
X_13277_ _06993_ _06994_ _06992_ _06995_ VPWR VGND sg13g2_nand3_1
Xplace1819 acc_sum.reg2en.q\[0\] net1819 VPWR VGND sg13g2_buf_1
XFILLER_6_696 VPWR VGND sg13g2_decap_4
X_12228_ _06074_ _05967_ _06073_ VPWR VGND sg13g2_xnor2_1
X_10489_ net1847 fp16_sum_pipe.add_renorm0.mantisa\[8\] _04535_ VPWR VGND sg13g2_nor2_1
XFILLER_111_701 VPWR VGND sg13g2_decap_8
XFILLER_97_935 VPWR VGND sg13g2_decap_8
XFILLER_96_412 VPWR VGND sg13g2_decap_8
XFILLER_69_615 VPWR VGND sg13g2_fill_1
X_12159_ _06003_ _06004_ _05986_ _06005_ VPWR VGND sg13g2_nand3_1
XFILLER_2_891 VPWR VGND sg13g2_decap_8
XFILLER_25_1008 VPWR VGND sg13g2_decap_4
XFILLER_111_789 VPWR VGND sg13g2_decap_8
XFILLER_68_147 VPWR VGND sg13g2_decap_8
XFILLER_110_288 VPWR VGND sg13g2_decap_8
XFILLER_83_117 VPWR VGND sg13g2_decap_8
XFILLER_65_843 VPWR VGND sg13g2_decap_4
XFILLER_65_810 VPWR VGND sg13g2_decap_4
X_09370_ _03519_ VPWR _03520_ VGND _03500_ _03515_ sg13g2_o21ai_1
X_08321_ _02566_ _02565_ VPWR VGND sg13g2_inv_2
XFILLER_60_592 VPWR VGND sg13g2_fill_1
X_08252_ _02501_ _02502_ _02500_ _02503_ VPWR VGND sg13g2_nand3_1
XFILLER_21_924 VPWR VGND sg13g2_decap_8
X_07203_ VPWR _01575_ _01574_ VGND sg13g2_inv_1
XFILLER_119_856 VPWR VGND sg13g2_decap_8
XFILLER_118_300 VPWR VGND sg13g2_decap_4
Xclkbuf_4_12_0_clk clknet_0_clk clknet_4_12_0_clk VPWR VGND sg13g2_buf_8
X_08183_ _02439_ _02440_ _02441_ VPWR VGND sg13g2_nor2b_1
XFILLER_20_489 VPWR VGND sg13g2_fill_1
XFILLER_118_366 VPWR VGND sg13g2_decap_8
X_07134_ acc_sub.op_sign_logic0.mantisa_a\[8\] _01505_ _01506_ VPWR VGND sg13g2_nor2_1
XFILLER_114_572 VPWR VGND sg13g2_decap_8
XFILLER_114_550 VPWR VGND sg13g2_decap_8
XFILLER_0_828 VPWR VGND sg13g2_decap_8
XFILLER_102_756 VPWR VGND sg13g2_decap_8
XFILLER_88_946 VPWR VGND sg13g2_decap_8
XFILLER_87_423 VPWR VGND sg13g2_decap_8
XFILLER_75_618 VPWR VGND sg13g2_decap_4
X_07967_ _02241_ _02234_ _02240_ VPWR VGND sg13g2_nand2_2
XFILLER_114_56 VPWR VGND sg13g2_decap_8
XFILLER_96_990 VPWR VGND sg13g2_decap_8
X_09706_ VGND VPWR _03820_ net1807 _03822_ _03821_ sg13g2_a21oi_1
XFILLER_74_117 VPWR VGND sg13g2_fill_1
XFILLER_68_670 VPWR VGND sg13g2_fill_1
XFILLER_56_821 VPWR VGND sg13g2_decap_4
XFILLER_56_810 VPWR VGND sg13g2_fill_1
X_07898_ _02176_ net1892 acc_sub.x2\[0\] VPWR VGND sg13g2_nand2_1
XFILLER_56_876 VPWR VGND sg13g2_decap_8
XFILLER_55_320 VPWR VGND sg13g2_fill_2
X_09637_ _03754_ _03630_ _03631_ VPWR VGND sg13g2_nand2_1
XFILLER_83_695 VPWR VGND sg13g2_fill_2
XFILLER_55_386 VPWR VGND sg13g2_decap_4
XFILLER_55_364 VPWR VGND sg13g2_fill_2
XFILLER_43_515 VPWR VGND sg13g2_decap_8
XFILLER_15_217 VPWR VGND sg13g2_decap_4
X_09568_ _03685_ _03674_ _03667_ _03684_ _03655_ VPWR VGND sg13g2_a22oi_1
XFILLER_82_183 VPWR VGND sg13g2_decap_4
XFILLER_43_559 VPWR VGND sg13g2_decap_4
X_08519_ _02740_ _02742_ _02743_ VPWR VGND sg13g2_nor2_1
XFILLER_23_250 VPWR VGND sg13g2_fill_1
XFILLER_24_773 VPWR VGND sg13g2_decap_8
X_09499_ _03617_ fp16_res_pipe.exp_mant_logic0.a\[0\] VPWR VGND sg13g2_inv_2
XFILLER_11_401 VPWR VGND sg13g2_fill_2
XFILLER_11_412 VPWR VGND sg13g2_decap_8
XFILLER_12_946 VPWR VGND sg13g2_decap_8
X_11530_ VPWR _05435_ _05434_ VGND sg13g2_inv_1
XFILLER_11_456 VPWR VGND sg13g2_decap_4
XFILLER_23_42 VPWR VGND sg13g2_decap_8
XFILLER_23_294 VPWR VGND sg13g2_decap_8
XFILLER_99_13 VPWR VGND sg13g2_fill_2
X_11461_ VGND VPWR _05382_ net1944 _01046_ _05383_ sg13g2_a21oi_1
X_14180_ VPWR _00731_ net139 VGND sg13g2_inv_1
XFILLER_99_35 VPWR VGND sg13g2_decap_8
X_11392_ _05340_ net1707 fpdiv.div_out\[10\] VPWR VGND sg13g2_nand2_1
X_13200_ _06934_ VPWR _00859_ VGND _06933_ net1713 sg13g2_o21ai_1
XFILLER_20_990 VPWR VGND sg13g2_decap_8
X_10412_ VPWR _04462_ fp16_sum_pipe.reg2en.q\[0\] VGND sg13g2_inv_1
XFILLER_125_837 VPWR VGND sg13g2_decap_8
X_13131_ _06882_ piso.tx_bit_counter\[4\] _00877_ VPWR VGND sg13g2_nor2b_1
X_10343_ VPWR _04393_ fp16_sum_pipe.op_sign_logic0.mantisa_a\[9\] VGND sg13g2_inv_1
XFILLER_124_336 VPWR VGND sg13g2_decap_8
XFILLER_3_622 VPWR VGND sg13g2_fill_1
X_13062_ _05803_ _05805_ _05801_ _06830_ VPWR VGND _05807_ sg13g2_nand4_1
XFILLER_3_688 VPWR VGND sg13g2_decap_4
XFILLER_2_154 VPWR VGND sg13g2_decap_8
X_10274_ _04343_ VPWR _04344_ VGND _04322_ _04124_ sg13g2_o21ai_1
XFILLER_78_423 VPWR VGND sg13g2_decap_8
X_12013_ net1878 _05852_ _05865_ VPWR VGND _05864_ sg13g2_nand3b_1
XFILLER_0_35 VPWR VGND sg13g2_decap_8
XFILLER_19_556 VPWR VGND sg13g2_decap_8
X_13964_ VPWR _00515_ net18 VGND sg13g2_inv_1
X_12915_ _06689_ VPWR _06690_ VGND net1962 _06687_ sg13g2_o21ai_1
XFILLER_62_802 VPWR VGND sg13g2_decap_4
XFILLER_46_364 VPWR VGND sg13g2_decap_8
XFILLER_19_589 VPWR VGND sg13g2_decap_8
X_13895_ VPWR _00446_ net11 VGND sg13g2_inv_1
X_12846_ _00016_ net1730 net1701 _06626_ VPWR VGND sg13g2_nand3_1
XFILLER_61_334 VPWR VGND sg13g2_decap_8
XFILLER_34_537 VPWR VGND sg13g2_fill_2
XFILLER_15_773 VPWR VGND sg13g2_decap_8
X_14516_ _00317_ VGND VPWR _01052_ fpdiv.reg_a_out\[7\] clknet_leaf_56_clk sg13g2_dfrbpq_2
X_12777_ VGND VPWR net1958 fpmul.reg_p_out\[15\] _06562_ _06561_ sg13g2_a21oi_1
XFILLER_42_592 VPWR VGND sg13g2_decap_8
XFILLER_14_250 VPWR VGND sg13g2_fill_1
XFILLER_14_283 VPWR VGND sg13g2_decap_8
XFILLER_9_77 VPWR VGND sg13g2_decap_8
X_11728_ _05483_ _05486_ _05632_ VPWR VGND sg13g2_nor2_1
XFILLER_119_119 VPWR VGND sg13g2_decap_8
X_14447_ _00248_ VGND VPWR _00986_ fpmul.seg_reg0.q\[32\] clknet_leaf_97_clk sg13g2_dfrbpq_1
X_11659_ _05564_ _05405_ _05417_ VPWR VGND sg13g2_xnor2_1
XFILLER_31_1012 VPWR VGND sg13g2_fill_2
X_14378_ _00179_ VGND VPWR _00919_ fpmul.reg_b_out\[9\] clknet_leaf_125_clk sg13g2_dfrbpq_2
X_13329_ _07035_ VPWR _00831_ VGND _07034_ net1725 sg13g2_o21ai_1
XFILLER_7_972 VPWR VGND sg13g2_decap_8
XFILLER_6_460 VPWR VGND sg13g2_decap_8
XFILLER_127_196 VPWR VGND sg13g2_decap_8
Xplace1649 _01959_ net1649 VPWR VGND sg13g2_buf_2
Xplace1638 _02475_ net1638 VPWR VGND sg13g2_buf_2
XFILLER_115_369 VPWR VGND sg13g2_fill_1
XFILLER_9_1013 VPWR VGND sg13g2_fill_1
X_08870_ acc_sub.add_renorm0.mantisa\[1\] _03029_ _03056_ _03057_ VPWR VGND sg13g2_nor3_1
XFILLER_97_754 VPWR VGND sg13g2_fill_1
XFILLER_97_743 VPWR VGND sg13g2_decap_8
X_07821_ _02116_ _02117_ _02115_ _02118_ VPWR VGND sg13g2_nand3_1
XFILLER_97_765 VPWR VGND sg13g2_decap_8
XFILLER_96_253 VPWR VGND sg13g2_fill_1
XFILLER_96_242 VPWR VGND sg13g2_decap_8
XFILLER_57_607 VPWR VGND sg13g2_decap_8
XFILLER_29_0 VPWR VGND sg13g2_decap_8
XFILLER_84_415 VPWR VGND sg13g2_decap_8
X_07752_ acc_sub.exp_mant_logic0.b\[6\] acc_sub.exp_mant_logic0.b\[5\] acc_sub.exp_mant_logic0.b\[4\]
+ acc_sub.exp_mant_logic0.b\[3\] _02056_ VPWR VGND sg13g2_nor4_1
X_07683_ _01992_ _01987_ _01991_ VPWR VGND sg13g2_nand2_1
XFILLER_93_982 VPWR VGND sg13g2_decap_8
XFILLER_38_876 VPWR VGND sg13g2_decap_8
XFILLER_25_504 VPWR VGND sg13g2_decap_8
XFILLER_80_643 VPWR VGND sg13g2_fill_1
XFILLER_80_621 VPWR VGND sg13g2_decap_4
XFILLER_64_172 VPWR VGND sg13g2_decap_4
XFILLER_52_334 VPWR VGND sg13g2_decap_8
X_09422_ VPWR _03565_ fp16_res_pipe.add_renorm0.mantisa\[1\] VGND sg13g2_inv_1
XFILLER_25_537 VPWR VGND sg13g2_decap_4
XFILLER_80_665 VPWR VGND sg13g2_decap_8
XFILLER_40_507 VPWR VGND sg13g2_decap_8
X_09353_ net1738 _03477_ _03503_ _03504_ VPWR VGND sg13g2_nand3_1
X_08304_ _02551_ net1774 fp16_sum_pipe.op_sign_logic0.mantisa_b\[1\] VPWR VGND sg13g2_nand2_1
XFILLER_21_732 VPWR VGND sg13g2_fill_2
X_09284_ _03376_ _03437_ _03438_ VPWR VGND sg13g2_nor2_1
X_08235_ _02486_ _02487_ _02485_ _02488_ VPWR VGND sg13g2_nand3_1
XFILLER_20_253 VPWR VGND sg13g2_decap_8
XFILLER_20_264 VPWR VGND sg13g2_fill_1
XFILLER_119_664 VPWR VGND sg13g2_decap_4
X_08166_ _02425_ fp16_sum_pipe.exp_mant_logic0.a\[6\] _02408_ _02273_ _02332_ VPWR
+ VGND sg13g2_a22oi_1
XFILLER_20_297 VPWR VGND sg13g2_decap_8
X_07117_ _01490_ acc_sub.seg_reg1.q\[21\] VPWR VGND sg13g2_inv_2
XFILLER_109_56 VPWR VGND sg13g2_decap_8
XFILLER_107_837 VPWR VGND sg13g2_decap_8
XFILLER_107_826 VPWR VGND sg13g2_fill_2
XFILLER_118_196 VPWR VGND sg13g2_decap_8
XFILLER_106_347 VPWR VGND sg13g2_decap_8
X_08097_ _02362_ fp16_sum_pipe.exp_mant_logic0.a\[5\] net1684 fp16_sum_pipe.op_sign_logic0.mantisa_a\[8\]
+ net1776 VPWR VGND sg13g2_a22oi_1
XFILLER_121_306 VPWR VGND sg13g2_fill_1
Xclkload90 clknet_leaf_82_clk clkload90/Y VPWR VGND sg13g2_inv_4
XFILLER_125_77 VPWR VGND sg13g2_decap_8
XFILLER_0_658 VPWR VGND sg13g2_decap_8
XFILLER_0_669 VPWR VGND sg13g2_fill_2
X_08999_ VPWR _03185_ _03184_ VGND sg13g2_inv_1
XFILLER_102_597 VPWR VGND sg13g2_fill_2
XFILLER_75_415 VPWR VGND sg13g2_decap_8
XFILLER_47_117 VPWR VGND sg13g2_decap_8
XFILLER_18_42 VPWR VGND sg13g2_decap_8
XFILLER_28_320 VPWR VGND sg13g2_decap_8
XFILLER_16_504 VPWR VGND sg13g2_fill_1
X_10961_ _04966_ _04964_ _04965_ _04963_ _04962_ VPWR VGND sg13g2_a22oi_1
X_12700_ _06479_ VPWR _06509_ VGND net1734 _06508_ sg13g2_o21ai_1
XFILLER_70_120 VPWR VGND sg13g2_fill_1
X_13680_ VPWR _00231_ net69 VGND sg13g2_inv_1
XFILLER_43_334 VPWR VGND sg13g2_decap_8
X_12631_ VPWR _06447_ _06446_ VGND sg13g2_inv_1
XFILLER_71_665 VPWR VGND sg13g2_decap_8
XFILLER_44_868 VPWR VGND sg13g2_decap_8
XFILLER_43_367 VPWR VGND sg13g2_decap_8
X_10892_ VPWR _04902_ fp16_res_pipe.y\[12\] VGND sg13g2_inv_1
XFILLER_71_687 VPWR VGND sg13g2_decap_8
XFILLER_70_175 VPWR VGND sg13g2_decap_8
XFILLER_34_63 VPWR VGND sg13g2_decap_8
XFILLER_12_721 VPWR VGND sg13g2_decap_8
XFILLER_24_581 VPWR VGND sg13g2_fill_1
X_12562_ _05370_ fpdiv.reg_b_out\[7\] _06377_ _06378_ VPWR VGND sg13g2_nor3_1
X_14301_ _00102_ VGND VPWR _00845_ acc\[11\] clknet_leaf_23_clk sg13g2_dfrbpq_2
X_12493_ net1871 fpmul.seg_reg0.q\[5\] _06329_ VPWR VGND sg13g2_nor2_1
X_11513_ _05405_ _05417_ _05418_ VPWR VGND sg13g2_nor2_1
X_11444_ VPWR _05372_ fpdiv.divider0.dividend\[10\] VGND sg13g2_inv_1
X_14232_ _00033_ VGND VPWR _00783_ sipo.shift_reg\[13\] clknet_leaf_8_clk sg13g2_dfrbpq_1
XFILLER_8_769 VPWR VGND sg13g2_fill_1
XFILLER_109_174 VPWR VGND sg13g2_decap_4
XFILLER_50_84 VPWR VGND sg13g2_decap_8
XFILLER_124_133 VPWR VGND sg13g2_decap_8
X_14163_ VPWR _00714_ net101 VGND sg13g2_inv_1
X_11375_ _05326_ _05227_ acc_sum.exp_mant_logic0.b\[6\] VPWR VGND sg13g2_nand2_1
XFILLER_98_507 VPWR VGND sg13g2_decap_8
X_13114_ _06871_ _06787_ _06870_ VPWR VGND sg13g2_xnor2_1
XFILLER_4_986 VPWR VGND sg13g2_decap_8
XFILLER_3_441 VPWR VGND sg13g2_decap_8
X_14094_ VPWR _00645_ net41 VGND sg13g2_inv_1
X_10326_ _04380_ VPWR _01178_ VGND net1921 _04329_ sg13g2_o21ai_1
XFILLER_78_220 VPWR VGND sg13g2_fill_1
X_13045_ VPWR _06813_ _06812_ VGND sg13g2_inv_1
X_10257_ _04328_ _04326_ _04327_ VPWR VGND sg13g2_nand2_1
XFILLER_121_840 VPWR VGND sg13g2_decap_8
XFILLER_22_7 VPWR VGND sg13g2_decap_8
XFILLER_78_275 VPWR VGND sg13g2_fill_1
XFILLER_66_437 VPWR VGND sg13g2_decap_8
X_10188_ fp16_res_pipe.exp_mant_logic0.b\[6\] fp16_res_pipe.exp_mant_logic0.b\[5\]
+ fp16_res_pipe.exp_mant_logic0.b\[4\] fp16_res_pipe.exp_mant_logic0.b\[3\] _04266_
+ VPWR VGND sg13g2_nor4_1
XFILLER_82_919 VPWR VGND sg13g2_decap_8
XFILLER_78_297 VPWR VGND sg13g2_fill_2
XFILLER_19_320 VPWR VGND sg13g2_decap_8
X_13947_ VPWR _00498_ net97 VGND sg13g2_inv_1
XFILLER_74_470 VPWR VGND sg13g2_decap_8
XFILLER_62_632 VPWR VGND sg13g2_decap_8
XFILLER_90_974 VPWR VGND sg13g2_decap_8
XFILLER_62_654 VPWR VGND sg13g2_fill_1
XFILLER_35_879 VPWR VGND sg13g2_fill_2
X_13878_ VPWR _00429_ net53 VGND sg13g2_inv_1
XFILLER_22_507 VPWR VGND sg13g2_decap_8
X_12829_ _06611_ _06610_ net1959 VPWR VGND sg13g2_nand2_1
XFILLER_61_175 VPWR VGND sg13g2_fill_1
XFILLER_34_378 VPWR VGND sg13g2_decap_8
XFILLER_30_562 VPWR VGND sg13g2_fill_1
XFILLER_30_573 VPWR VGND sg13g2_decap_8
X_08020_ VGND VPWR _02285_ _02236_ _02286_ _02200_ sg13g2_a21oi_1
XFILLER_116_612 VPWR VGND sg13g2_fill_2
XFILLER_116_656 VPWR VGND sg13g2_decap_8
XFILLER_115_133 VPWR VGND sg13g2_decap_8
Xfanout7 net15 net7 VPWR VGND sg13g2_buf_2
XFILLER_118_1006 VPWR VGND sg13g2_decap_8
XFILLER_116_667 VPWR VGND sg13g2_fill_1
X_09971_ _04063_ _04056_ fp16_res_pipe.exp_mant_logic0.a\[9\] VPWR VGND sg13g2_nand2_1
X_08922_ _03106_ _03107_ _03105_ _03109_ VPWR VGND _03108_ sg13g2_nand4_1
XFILLER_97_562 VPWR VGND sg13g2_decap_8
X_08853_ _03040_ net1789 acc_sub.add_renorm0.mantisa\[8\] VPWR VGND sg13g2_nand2_1
XFILLER_112_873 VPWR VGND sg13g2_decap_8
X_08784_ _02971_ acc_sub.add_renorm0.mantisa\[6\] _02970_ VPWR VGND sg13g2_xnor2_1
X_07804_ _02102_ _01989_ net1747 VPWR VGND sg13g2_nand2_1
XFILLER_85_779 VPWR VGND sg13g2_decap_8
XFILLER_85_757 VPWR VGND sg13g2_fill_1
XFILLER_84_234 VPWR VGND sg13g2_fill_2
X_07735_ _02041_ net1779 acc_sub.op_sign_logic0.mantisa_a\[1\] VPWR VGND sg13g2_nand2_1
XFILLER_53_643 VPWR VGND sg13g2_decap_4
XFILLER_25_323 VPWR VGND sg13g2_decap_8
XFILLER_26_846 VPWR VGND sg13g2_fill_1
XFILLER_111_35 VPWR VGND sg13g2_decap_8
XFILLER_81_985 VPWR VGND sg13g2_decap_8
X_09405_ _03549_ VPWR _03550_ VGND _03404_ _03417_ sg13g2_o21ai_1
XFILLER_25_367 VPWR VGND sg13g2_decap_4
XFILLER_26_879 VPWR VGND sg13g2_fill_1
X_07597_ _01911_ net1686 _01884_ VPWR VGND sg13g2_nand2_1
XFILLER_40_326 VPWR VGND sg13g2_decap_8
X_09336_ VGND VPWR _03449_ _03415_ _03488_ _03487_ sg13g2_a21oi_1
X_09267_ VPWR _03421_ fp16_res_pipe.op_sign_logic0.mantisa_b\[4\] VGND sg13g2_inv_1
XFILLER_21_595 VPWR VGND sg13g2_decap_8
X_08218_ _02473_ VPWR _01372_ VGND fp16_sum_pipe.reg1en.q\[0\] _02457_ sg13g2_o21ai_1
Xclkbuf_leaf_141_clk clknet_5_1__leaf_clk clknet_leaf_141_clk VPWR VGND sg13g2_buf_8
X_09198_ _03355_ acc_sum.exp_mant_logic0.b\[1\] VPWR VGND sg13g2_inv_2
XFILLER_106_100 VPWR VGND sg13g2_decap_8
XFILLER_20_21 VPWR VGND sg13g2_decap_8
XFILLER_122_604 VPWR VGND sg13g2_fill_1
X_11160_ _05024_ _05120_ _05106_ _05129_ VPWR VGND sg13g2_nor3_1
XFILLER_122_648 VPWR VGND sg13g2_fill_2
XFILLER_106_199 VPWR VGND sg13g2_decap_4
X_11091_ _05064_ _05049_ acc_sum.exp_mant_logic0.b\[8\] VPWR VGND sg13g2_nand2_1
XFILLER_0_400 VPWR VGND sg13g2_decap_8
XFILLER_1_934 VPWR VGND sg13g2_decap_8
X_10111_ _01207_ _04193_ _04194_ VPWR VGND sg13g2_nand2_1
XFILLER_121_147 VPWR VGND sg13g2_decap_8
XFILLER_103_862 VPWR VGND sg13g2_decap_8
XFILLER_96_36 VPWR VGND sg13g2_fill_1
XFILLER_88_540 VPWR VGND sg13g2_fill_2
X_10042_ _04130_ _04128_ _04017_ VPWR VGND sg13g2_nand2_1
XFILLER_102_372 VPWR VGND sg13g2_decap_4
XFILLER_49_938 VPWR VGND sg13g2_decap_8
XFILLER_0_477 VPWR VGND sg13g2_decap_8
XFILLER_102_394 VPWR VGND sg13g2_fill_2
XFILLER_102_383 VPWR VGND sg13g2_decap_8
XFILLER_75_245 VPWR VGND sg13g2_decap_8
XFILLER_75_234 VPWR VGND sg13g2_decap_4
XFILLER_48_459 VPWR VGND sg13g2_decap_8
X_14850_ _00651_ VGND VPWR _01374_ fp16_sum_pipe.op_sign_logic0.mantisa_a\[1\] clknet_leaf_114_clk
+ sg13g2_dfrbpq_2
XFILLER_29_63 VPWR VGND sg13g2_decap_8
X_14781_ _00582_ VGND VPWR _01305_ acc_sub.y\[10\] clknet_5_21__leaf_clk sg13g2_dfrbpq_1
XFILLER_91_716 VPWR VGND sg13g2_fill_2
XFILLER_91_705 VPWR VGND sg13g2_decap_8
X_13801_ VPWR _00352_ net73 VGND sg13g2_inv_1
XFILLER_17_802 VPWR VGND sg13g2_fill_1
X_11993_ _05834_ _05833_ _05846_ _05847_ VPWR VGND sg13g2_a21o_1
X_13732_ VPWR _00283_ net63 VGND sg13g2_inv_1
XFILLER_17_824 VPWR VGND sg13g2_decap_8
XFILLER_72_963 VPWR VGND sg13g2_fill_1
X_10944_ _04950_ VPWR _01130_ VGND fp16_res_pipe.reg3en.q\[0\] _04940_ sg13g2_o21ai_1
XFILLER_16_345 VPWR VGND sg13g2_decap_8
XFILLER_71_462 VPWR VGND sg13g2_decap_8
X_13663_ VPWR _00214_ net36 VGND sg13g2_inv_1
XFILLER_45_84 VPWR VGND sg13g2_decap_8
X_10875_ VGND VPWR _04885_ _04819_ _04886_ _04774_ sg13g2_a21oi_1